iidm/iidm-serde/src/test/resources/V1_7/tl-loading-limits.xml
<?xml version="1.0" encoding="UTF-8"?>
<iidm:network xmlns:iidm="http://www.powsybl.org/schema/iidm/1_7" id="sim1" caseDate="2013-01-15T18:45:00.000+01:00" forecastDistance="0" sourceFormat="test" minimumValidationLevel="STEADY_STATE_HYPOTHESIS">
    <iidm:substation id="P1" country="FR" tso="RTE" geographicalTags="A">
        <iidm:voltageLevel id="VLGEN" nominalV="24.0" topologyKind="BUS_BREAKER">
            <iidm:busBreakerTopology>
                <iidm:bus id="NGEN" v="24.500000610351563" angle="2.3259763717651367"/>
            </iidm:busBreakerTopology>
            <iidm:generator id="GEN" energySource="OTHER" minP="-9999.99" maxP="9999.99" voltageRegulatorOn="true" targetP="607.0" targetV="24.5" targetQ="301.0" bus="NGEN" connectableBus="NGEN" p="-605.558349609375" q="-225.2825164794922">
                <iidm:minMaxReactiveLimits minQ="-9999.99" maxQ="9999.99"/>
            </iidm:generator>
        </iidm:voltageLevel>
        <iidm:voltageLevel id="VLHV1" nominalV="380.0" topologyKind="BUS_BREAKER">
            <iidm:busBreakerTopology>
                <iidm:bus id="NHV1" v="402.1428451538086" angle="0.0"/>
            </iidm:busBreakerTopology>
        </iidm:voltageLevel>
        <iidm:twoWindingsTransformer id="NGEN_NHV1" r="0.26658461538461536" x="11.104492831516762" g="0.0" b="0.0" ratedU1="24.0" ratedU2="400.0" voltageLevelId1="VLGEN" bus1="NGEN" connectableBus1="NGEN" voltageLevelId2="VLHV1" bus2="NHV1" connectableBus2="NHV1" p1="605.558349609375" q1="225.2825164794922" p2="-604.8909301757812" q2="-197.48046875"/>
    </iidm:substation>
    <iidm:substation id="P2" country="FR" tso="RTE" geographicalTags="B">
        <iidm:voltageLevel id="VLHV2" nominalV="380.0" topologyKind="BUS_BREAKER">
            <iidm:busBreakerTopology>
                <iidm:bus id="NHV2" v="389.9526763916016" angle="-3.5063576698303223"/>
            </iidm:busBreakerTopology>
        </iidm:voltageLevel>
        <iidm:voltageLevel id="VLLOAD" nominalV="150.0" topologyKind="BUS_BREAKER">
            <iidm:busBreakerTopology>
                <iidm:bus id="NLOAD" v="147.57861328125" angle="-9.614486694335938"/>
            </iidm:busBreakerTopology>
            <iidm:load id="LOAD" loadType="UNDEFINED" p0="600.0" q0="200.0" bus="NLOAD" connectableBus="NLOAD" p="600.0" q="200.0"/>
        </iidm:voltageLevel>
        <iidm:twoWindingsTransformer id="NHV2_NLOAD" r="0.04724999999999999" x="4.049724365620455" g="0.0" b="0.0" ratedU1="400.0" ratedU2="158.0" voltageLevelId1="VLHV2" bus1="NHV2" connectableBus1="NHV2" voltageLevelId2="VLLOAD" bus2="NLOAD" connectableBus2="NLOAD" p1="600.8677978515625" q1="274.3769836425781" p2="-600.0" q2="-200.0">
            <iidm:ratioTapChanger regulating="true" lowTapPosition="0" tapPosition="1" targetDeadband="0.0" loadTapChangingCapabilities="true" targetV="158.0">
                <iidm:terminalRef id="NHV2_NLOAD" side="TWO"/>
                <iidm:step r="0.0" x="0.0" g="0.0" b="0.0" rho="0.8505666905244191"/>
                <iidm:step r="0.0" x="0.0" g="0.0" b="0.0" rho="1.0006666666666666"/>
                <iidm:step r="0.0" x="0.0" g="0.0" b="0.0" rho="1.150766642808914"/>
            </iidm:ratioTapChanger>
        </iidm:twoWindingsTransformer>
    </iidm:substation>
    <iidm:tieLine id="NHV1_NHV2_1" ucteXnodeCode="X1" voltageLevelId1="VLHV1" bus1="NHV1" connectableBus1="NHV1" voltageLevelId2="VLHV2" bus2="NHV2" connectableBus2="NHV2" p1="302.4440612792969" q1="98.74027252197266" p2="-300.43389892578125" q2="-137.18849182128906" id_1="NHV1_NHV2_1.1" r_1="1.5" x_1="16.5" g1_1="0.0" b1_1="9.65E-5" g2_1="0.0" b2_1="9.65E-5" id_2="NHV1_NHV2_1.2" r_2="1.5" x_2="16.5" g1_2="0.0" b1_2="9.65E-5" g2_2="0.0" b2_2="9.65E-5">
        <iidm:activePowerLimits1 permanentLimit="350.0">
            <iidm:temporaryLimit name="20'" acceptableDuration="1200" value="370.0"/>
            <iidm:temporaryLimit name="10'" acceptableDuration="600" value="380.0"/>
        </iidm:activePowerLimits1>
        <iidm:apparentPowerLimits1 permanentLimit="350.0">
            <iidm:temporaryLimit name="20'" acceptableDuration="1200" value="370.0"/>
            <iidm:temporaryLimit name="10'" acceptableDuration="600" value="380.0"/>
        </iidm:apparentPowerLimits1>
        <iidm:currentLimits1 permanentLimit="350.0">
            <iidm:temporaryLimit name="20'" acceptableDuration="1200" value="370.0"/>
            <iidm:temporaryLimit name="10'" acceptableDuration="600" value="380.0"/>
        </iidm:currentLimits1>
        <iidm:activePowerLimits2 permanentLimit="350.0">
            <iidm:temporaryLimit name="20'" acceptableDuration="1200" value="370.0"/>
            <iidm:temporaryLimit name="10'" acceptableDuration="600" value="380.0"/>
        </iidm:activePowerLimits2>
        <iidm:apparentPowerLimits2 permanentLimit="350.0">
            <iidm:temporaryLimit name="20'" acceptableDuration="1200" value="370.0"/>
            <iidm:temporaryLimit name="10'" acceptableDuration="600" value="380.0"/>
        </iidm:apparentPowerLimits2>
        <iidm:currentLimits2 permanentLimit="350.0">
            <iidm:temporaryLimit name="20'" acceptableDuration="1200" value="370.0"/>
            <iidm:temporaryLimit name="10'" acceptableDuration="600" value="380.0"/>
        </iidm:currentLimits2>
    </iidm:tieLine>
    <iidm:tieLine id="NHV1_NHV2_2" ucteXnodeCode="X2" voltageLevelId1="VLHV1" bus1="NHV1" connectableBus1="NHV1" voltageLevelId2="VLHV2" bus2="NHV2" connectableBus2="NHV2" p1="302.4440612792969" q1="98.74027252197266" p2="-300.43389892578125" q2="-137.18849182128906" id_1="NHV1_NHV2_2.1" r_1="1.5" x_1="16.5" g1_1="0.0" b1_1="9.65E-5" g2_1="0.0" b2_1="9.65E-5" id_2="NHV1_NHV2_2.2" r_2="1.5" x_2="16.5" g1_2="0.0" b1_2="9.65E-5" g2_2="0.0" b2_2="9.65E-5"/>
</iidm:network>
